8
Lattice="5.657 0.0 0.0 0.0 5.657 0.0 0.0 0.0 5.657" Properties=species:S:1:pos:R:3 pbc="T T T"
Ge       0.70712500       0.70712500       0.70712500
Ge       3.53562500       3.53562500       0.70712500
Ge       3.53562500       0.70712500       3.53562500
Ge       0.70712500       3.53562500       3.53562500
Ge       2.12137500       2.12137500       2.12137500
Ge       4.94987500       4.94987500       2.12137500
Ge       4.94987500       2.12137500       4.94987500
Ge       2.12137500       4.94987500       4.94987500
